VERS 250115
CONF   1   0 0.000000000000E+00 0.000000000000E+00 0.000000000000E+00 0.000000000000E+00 0.000000000000E+00 0.000000000000E+00 0.000000000000E+00 0.000000000000E+00 0.000000000000E+00
BLNK Constraints.
EFLX   1   3 0.000000000000E+00 0.000000000000E+00 0.000000000000E+00 0.000000000000E+00 0.000000000000E+00 0.000000000000E+00 6.300000000000E+01 0.000000000000E+00 6.307741062066E+01
EFLX  13  17 0.000000000000E+00 0.000000000000E+00 0.000000000000E+00 0.000000000000E+00 0.000000000000E+00 0.000000000000E+00 2.720000000000E+02 1.000000000000E+00 2.719999554354E+02
BLNK 
BLNK Transmission.
CODA   0   1 1.000000000000E+00 0.000000000000E+00 0.000000000000E+00 0.000000000000E+00 0.000000000000E+00 0.000000000000E+00 1.000000000000E+00 0.000000000000E+00 7.806447406810E-01
OPGT   7   0 0.000000000000E+00 0.000000000000E+00 0.000000000000E+00 0.000000000000E+00 0.000000000000E+00 0.000000000000E+00 9.000000000000E-01 1.000000000000E-01 7.806447406810E-01
CODA   0   2 1.000000000000E+00 0.000000000000E+00 0.000000000000E+00 0.000000000000E+00 0.000000000000E+00 0.000000000000E+00 1.000000000000E+00 0.000000000000E+00 7.763537122057E-01
OPGT   9   0 0.000000000000E+00 0.000000000000E+00 0.000000000000E+00 0.000000000000E+00 0.000000000000E+00 0.000000000000E+00 9.000000000000E-01 1.000000000000E-01 7.763537122057E-01
CODA   0   3 1.000000000000E+00 0.000000000000E+00 0.000000000000E+00 0.000000000000E+00 0.000000000000E+00 0.000000000000E+00 1.000000000000E+00 0.000000000000E+00 7.627898912280E-01
OPGT  11   0 0.000000000000E+00 0.000000000000E+00 0.000000000000E+00 0.000000000000E+00 0.000000000000E+00 0.000000000000E+00 9.000000000000E-01 1.000000000000E-01 7.627898912280E-01
CODA   0   3 1.000000000000E+00 0.000000000000E+00 0.000000000000E+00 0.000000000000E+00 0.000000000000E+00 0.000000000000E+00 1.000000000000E+00 0.000000000000E+00 7.627898912280E-01
OPGT  13   0 0.000000000000E+00 0.000000000000E+00 0.000000000000E+00 0.000000000000E+00 0.000000000000E+00 0.000000000000E+00 9.000000000000E-01 1.000000000000E-01 7.627898912280E-01
CODA   0   3 1.000000000000E+00 0.000000000000E+00 0.000000000000E+00 0.000000000000E+00 0.000000000000E+00 0.000000000000E+00 1.000000000000E+00 0.000000000000E+00 7.627898912280E-01
OPGT  15   0 0.000000000000E+00 0.000000000000E+00 0.000000000000E+00 0.000000000000E+00 0.000000000000E+00 0.000000000000E+00 9.000000000000E-01 1.000000000000E-01 7.627898912280E-01
CODA   0   3 1.000000000000E+00 0.000000000000E+00 0.000000000000E+00 0.000000000000E+00 0.000000000000E+00 0.000000000000E+00 1.000000000000E+00 0.000000000000E+00 7.627898912280E-01
OPGT  17   0 0.000000000000E+00 0.000000000000E+00 0.000000000000E+00 0.000000000000E+00 0.000000000000E+00 0.000000000000E+00 9.000000000000E-01 1.000000000000E-01 7.627898912280E-01
DMFS   0   0 0.000000000000E+00 0.000000000000E+00 0.000000000000E+00 0.000000000000E+00 0.000000000000E+00 0.000000000000E+00 0.000000000000E+00 0.000000000000E+00 0.000000000000E+00
BLNK 
BLNK Sequential merit function: RMS spot x+y centroid X Wgt = 1,0000 Y Wgt = 1,0000 GQ 6 rings 6 arms
CONF   1   0 0.000000000000E+00 0.000000000000E+00 0.000000000000E+00 0.000000000000E+00 0.000000000000E+00 0.000000000000E+00 0.000000000000E+00 0.000000000000E+00 0.000000000000E+00
BLNK No air or glass constraints.
BLNK Operands for field 1.
PRIM   0   1 0.000000000000E+00 0.000000000000E+00 0.000000000000E+00 0.000000000000E+00 0.000000000000E+00 0.000000000000E+00 0.000000000000E+00 0.000000000000E+00 0.000000000000E+00
TRCX   0   1 0.000000000000E+00 0.000000000000E+00 9.187660597021E-02 1.591349495674E-01 0.000000000000E+00 0.000000000000E+00 0.000000000000E+00 1.281504206282E-03 -1.171666813235E-03
TRCY   0   1 0.000000000000E+00 0.000000000000E+00 9.187660597021E-02 1.591349495674E-01 0.000000000000E+00 0.000000000000E+00 0.000000000000E+00 1.281504206282E-03 3.083487180540E-03
TRCX   0   1 0.000000000000E+00 0.000000000000E+00 2.057883055271E-01 3.564358007765E-01 0.000000000000E+00 0.000000000000E+00 0.000000000000E+00 2.698490256156E-03 -1.116580975442E-03
TRCY   0   1 0.000000000000E+00 0.000000000000E+00 2.057883055271E-01 3.564358007765E-01 0.000000000000E+00 0.000000000000E+00 0.000000000000E+00 2.698490256156E-03 1.168517633888E-03
TRCX   0   1 0.000000000000E+00 0.000000000000E+00 3.085005700799E-01 5.343386615423E-01 0.000000000000E+00 0.000000000000E+00 0.000000000000E+00 3.499988046109E-03 -1.763849029071E-03
TRCY   0   1 0.000000000000E+00 0.000000000000E+00 3.085005700799E-01 5.343386615423E-01 0.000000000000E+00 0.000000000000E+00 0.000000000000E+00 3.499988046109E-03 -2.032770578998E-03
TRCX   0   1 0.000000000000E+00 0.000000000000E+00 3.934811282138E-01 6.815293058858E-01 0.000000000000E+00 0.000000000000E+00 0.000000000000E+00 3.499988046109E-03 -1.650575207806E-03
TRCY   0   1 0.000000000000E+00 0.000000000000E+00 3.934811282138E-01 6.815293058858E-01 0.000000000000E+00 0.000000000000E+00 0.000000000000E+00 3.499988046109E-03 -3.784233262216E-03
TRCX   0   1 0.000000000000E+00 0.000000000000E+00 4.556875830087E-01 7.892740461493E-01 0.000000000000E+00 0.000000000000E+00 0.000000000000E+00 2.698490256156E-03 2.171833289264E-04
TRCY   0   1 0.000000000000E+00 0.000000000000E+00 4.556875830087E-01 7.892740461493E-01 0.000000000000E+00 0.000000000000E+00 0.000000000000E+00 2.698490256156E-03 -2.153389552520E-03
TRCX   0   1 0.000000000000E+00 0.000000000000E+00 4.914862045626E-01 8.512790775217E-01 0.000000000000E+00 0.000000000000E+00 0.000000000000E+00 1.281504206282E-03 2.666343480472E-03
TRCY   0   1 0.000000000000E+00 0.000000000000E+00 4.914862045626E-01 8.512790775217E-01 0.000000000000E+00 0.000000000000E+00 0.000000000000E+00 1.281504206282E-03 1.075213144105E-03
TRCX   0   1 0.000000000000E+00 0.000000000000E+00 1.837532119404E-01 0.000000000000E+00 0.000000000000E+00 0.000000000000E+00 0.000000000000E+00 1.281504206282E-03 -1.427996202894E-03
TRCY   0   1 0.000000000000E+00 0.000000000000E+00 1.837532119404E-01 0.000000000000E+00 0.000000000000E+00 0.000000000000E+00 0.000000000000E+00 1.281504206282E-03 3.819003558656E-03
TRCX   0   1 0.000000000000E+00 0.000000000000E+00 4.115766110542E-01 0.000000000000E+00 0.000000000000E+00 0.000000000000E+00 0.000000000000E+00 2.698490256156E-03 -1.960413245003E-03
TRCY   0   1 0.000000000000E+00 0.000000000000E+00 4.115766110542E-01 0.000000000000E+00 0.000000000000E+00 0.000000000000E+00 0.000000000000E+00 2.698490256156E-03 4.098878832448E-03
TRCX   0   1 0.000000000000E+00 0.000000000000E+00 6.170011401597E-01 0.000000000000E+00 0.000000000000E+00 0.000000000000E+00 0.000000000000E+00 3.499988046109E-03 -3.029884916295E-03
TRCY   0   1 0.000000000000E+00 0.000000000000E+00 6.170011401597E-01 0.000000000000E+00 0.000000000000E+00 0.000000000000E+00 0.000000000000E+00 3.499988046109E-03 3.909644704770E-03
TRCX   0   1 0.000000000000E+00 0.000000000000E+00 7.869622564276E-01 0.000000000000E+00 0.000000000000E+00 0.000000000000E+00 0.000000000000E+00 3.499988046109E-03 -1.668008653095E-03
TRCY   0   1 0.000000000000E+00 0.000000000000E+00 7.869622564276E-01 0.000000000000E+00 0.000000000000E+00 0.000000000000E+00 0.000000000000E+00 3.499988046109E-03 3.331192458926E-03
TRCX   0   1 0.000000000000E+00 0.000000000000E+00 9.113751660173E-01 0.000000000000E+00 0.000000000000E+00 0.000000000000E+00 0.000000000000E+00 2.698490256156E-03 3.685292529124E-03
TRCY   0   1 0.000000000000E+00 0.000000000000E+00 9.113751660173E-01 0.000000000000E+00 0.000000000000E+00 0.000000000000E+00 0.000000000000E+00 2.698490256156E-03 2.613974035537E-03
TRCX   0   1 0.000000000000E+00 0.000000000000E+00 9.829724091253E-01 0.000000000000E+00 0.000000000000E+00 0.000000000000E+00 0.000000000000E+00 1.281504206282E-03 9.902513477309E-03
TRCY   0   1 0.000000000000E+00 0.000000000000E+00 9.829724091253E-01 0.000000000000E+00 0.000000000000E+00 0.000000000000E+00 0.000000000000E+00 1.281504206282E-03 2.074601292570E-03
TRCX   0   1 0.000000000000E+00 0.000000000000E+00 9.187660597021E-02 -1.591349495674E-01 0.000000000000E+00 0.000000000000E+00 0.000000000000E+00 1.281504206282E-03 -2.014983642587E-03
TRCY   0   1 0.000000000000E+00 0.000000000000E+00 9.187660597021E-02 -1.591349495674E-01 0.000000000000E+00 0.000000000000E+00 0.000000000000E+00 1.281504206282E-03 3.716562212894E-03
TRCX   0   1 0.000000000000E+00 0.000000000000E+00 2.057883055271E-01 -3.564358007765E-01 0.000000000000E+00 0.000000000000E+00 0.000000000000E+00 2.698490256156E-03 -2.333879152493E-03
TRCY   0   1 0.000000000000E+00 0.000000000000E+00 2.057883055271E-01 -3.564358007765E-01 0.000000000000E+00 0.000000000000E+00 0.000000000000E+00 2.698490256156E-03 4.260764483712E-03
TRCX   0   1 0.000000000000E+00 0.000000000000E+00 3.085005700799E-01 -5.343386615423E-01 0.000000000000E+00 0.000000000000E+00 0.000000000000E+00 3.499988046109E-03 -2.243424181080E-03
TRCY   0   1 0.000000000000E+00 0.000000000000E+00 3.085005700799E-01 -5.343386615423E-01 0.000000000000E+00 0.000000000000E+00 0.000000000000E+00 3.499988046109E-03 4.045586544535E-03
TRCX   0   1 0.000000000000E+00 0.000000000000E+00 3.934811282138E-01 -6.815293058858E-01 0.000000000000E+00 0.000000000000E+00 0.000000000000E+00 3.499988046109E-03 -3.104220541417E-04
TRCY   0   1 0.000000000000E+00 0.000000000000E+00 3.934811282138E-01 -6.815293058858E-01 0.000000000000E+00 0.000000000000E+00 0.000000000000E+00 3.499988046109E-03 6.565142316148E-04
TRCX   0   1 0.000000000000E+00 0.000000000000E+00 4.556875830087E-01 -7.892740461493E-01 0.000000000000E+00 0.000000000000E+00 0.000000000000E+00 2.698490256156E-03 3.866261013856E-03
TRCY   0   1 0.000000000000E+00 0.000000000000E+00 4.556875830087E-01 -7.892740461493E-01 0.000000000000E+00 0.000000000000E+00 0.000000000000E+00 2.698490256156E-03 -6.547140195357E-03
TRCX   0   1 0.000000000000E+00 0.000000000000E+00 4.914862045626E-01 -8.512790775217E-01 0.000000000000E+00 0.000000000000E+00 0.000000000000E+00 1.281504206282E-03 8.119729010430E-03
TRCY   0   1 0.000000000000E+00 0.000000000000E+00 4.914862045626E-01 -8.512790775217E-01 0.000000000000E+00 0.000000000000E+00 0.000000000000E+00 1.281504206282E-03 -1.384559712405E-02
TRCX   0   1 0.000000000000E+00 0.000000000000E+00 -9.187660597021E-02 -1.591349495674E-01 0.000000000000E+00 0.000000000000E+00 0.000000000000E+00 1.281504206282E-03 -2.437192595167E-03
TRCY   0   1 0.000000000000E+00 0.000000000000E+00 -9.187660597021E-02 -1.591349495674E-01 0.000000000000E+00 0.000000000000E+00 0.000000000000E+00 1.281504206282E-03 3.279660851637E-03
TRCX   0   1 0.000000000000E+00 0.000000000000E+00 -2.057883055271E-01 -3.564358007765E-01 0.000000000000E+00 0.000000000000E+00 0.000000000000E+00 2.698490256156E-03 -2.449871486485E-03
TRCY   0   1 0.000000000000E+00 0.000000000000E+00 -2.057883055271E-01 -3.564358007765E-01 0.000000000000E+00 0.000000000000E+00 0.000000000000E+00 2.698490256156E-03 3.861603321646E-03
TRCX   0   1 0.000000000000E+00 0.000000000000E+00 -3.085005700799E-01 -5.343386615423E-01 0.000000000000E+00 0.000000000000E+00 0.000000000000E+00 3.499988046109E-03 -1.812848490410E-03
TRCY   0   1 0.000000000000E+00 0.000000000000E+00 -3.085005700799E-01 -5.343386615423E-01 0.000000000000E+00 0.000000000000E+00 0.000000000000E+00 3.499988046109E-03 4.581042137202E-03
TRCX   0   1 0.000000000000E+00 0.000000000000E+00 -3.934811282138E-01 -6.815293058858E-01 0.000000000000E+00 0.000000000000E+00 0.000000000000E+00 3.499988046109E-03 -2.052845033214E-03
TRCY   0   1 0.000000000000E+00 0.000000000000E+00 -3.934811282138E-01 -6.815293058858E-01 0.000000000000E+00 0.000000000000E+00 0.000000000000E+00 3.499988046109E-03 2.926829841758E-03
TRCX   0   1 0.000000000000E+00 0.000000000000E+00 -4.556875830087E-01 -7.892740461493E-01 0.000000000000E+00 0.000000000000E+00 0.000000000000E+00 2.698490256156E-03 -4.139034060961E-03
TRCY   0   1 0.000000000000E+00 0.000000000000E+00 -4.556875830087E-01 -7.892740461493E-01 0.000000000000E+00 0.000000000000E+00 0.000000000000E+00 2.698490256156E-03 -2.267309572295E-03
TRCX   0   1 0.000000000000E+00 0.000000000000E+00 -4.914862045626E-01 -8.512790775217E-01 0.000000000000E+00 0.000000000000E+00 0.000000000000E+00 1.281504206282E-03 -6.783310784066E-03
TRCY   0   1 0.000000000000E+00 0.000000000000E+00 -4.914862045626E-01 -8.512790775217E-01 0.000000000000E+00 0.000000000000E+00 0.000000000000E+00 1.281504206282E-03 -8.062441136218E-03
TRCX   0   1 0.000000000000E+00 0.000000000000E+00 -1.837532119404E-01 1.407023591125E-16 0.000000000000E+00 0.000000000000E+00 0.000000000000E+00 1.281504206282E-03 -1.973932843782E-03
TRCY   0   1 0.000000000000E+00 0.000000000000E+00 -1.837532119404E-01 1.407023591125E-16 0.000000000000E+00 0.000000000000E+00 0.000000000000E+00 1.281504206282E-03 2.688945608261E-03
TRCX   0   1 0.000000000000E+00 0.000000000000E+00 -4.115766110542E-01 3.151498660585E-16 0.000000000000E+00 0.000000000000E+00 0.000000000000E+00 2.698490256156E-03 -4.385108665179E-04
TRCY   0   1 0.000000000000E+00 0.000000000000E+00 -4.115766110542E-01 3.151498660585E-16 0.000000000000E+00 0.000000000000E+00 0.000000000000E+00 2.698490256156E-03 1.743848874725E-03
TRCX   0   1 0.000000000000E+00 0.000000000000E+00 -6.170011401597E-01 4.724462504836E-16 0.000000000000E+00 0.000000000000E+00 0.000000000000E+00 3.499988046109E-03 2.533839429757E-03
TRCY   0   1 0.000000000000E+00 0.000000000000E+00 -6.170011401597E-01 4.724462504836E-16 0.000000000000E+00 0.000000000000E+00 0.000000000000E+00 3.499988046109E-03 7.692005351263E-04
TRCX   0   1 0.000000000000E+00 0.000000000000E+00 -7.869622564276E-01 6.025878124391E-16 0.000000000000E+00 0.000000000000E+00 0.000000000000E+00 3.499988046109E-03 3.827520534148E-03
TRCY   0   1 0.000000000000E+00 0.000000000000E+00 -7.869622564276E-01 6.025878124391E-16 0.000000000000E+00 0.000000000000E+00 0.000000000000E+00 3.499988046109E-03 -1.549699401160E-04
TRCX   0   1 0.000000000000E+00 0.000000000000E+00 -9.113751660173E-01 6.978524867187E-16 0.000000000000E+00 0.000000000000E+00 0.000000000000E+00 2.698490256156E-03 1.286195474703E-03
TRCY   0   1 0.000000000000E+00 0.000000000000E+00 -9.113751660173E-01 6.978524867187E-16 0.000000000000E+00 0.000000000000E+00 0.000000000000E+00 2.698490256156E-03 -9.376204122304E-04
TRCX   0   1 0.000000000000E+00 0.000000000000E+00 -9.829724091253E-01 7.526754794972E-16 0.000000000000E+00 0.000000000000E+00 0.000000000000E+00 1.281504206282E-03 -2.890896507440E-03
TRCY   0   1 0.000000000000E+00 0.000000000000E+00 -9.829724091253E-01 7.526754794972E-16 0.000000000000E+00 0.000000000000E+00 0.000000000000E+00 1.281504206282E-03 -1.446516692209E-03
TRCX   0   1 0.000000000000E+00 0.000000000000E+00 -9.187660597021E-02 1.591349495674E-01 0.000000000000E+00 0.000000000000E+00 0.000000000000E+00 1.281504206282E-03 -1.312095882446E-03
TRCY   0   1 0.000000000000E+00 0.000000000000E+00 -9.187660597021E-02 1.591349495674E-01 0.000000000000E+00 0.000000000000E+00 0.000000000000E+00 1.281504206282E-03 2.418111095023E-03
TRCX   0   1 0.000000000000E+00 0.000000000000E+00 -2.057883055271E-01 3.564358007765E-01 0.000000000000E+00 0.000000000000E+00 0.000000000000E+00 2.698490256156E-03 3.300953652570E-04
TRCY   0   1 0.000000000000E+00 0.000000000000E+00 -2.057883055271E-01 3.564358007765E-01 0.000000000000E+00 0.000000000000E+00 0.000000000000E+00 2.698490256156E-03 -4.706355524196E-04
TRCX   0   1 0.000000000000E+00 0.000000000000E+00 -3.085005700799E-01 5.343386615423E-01 0.000000000000E+00 0.000000000000E+00 0.000000000000E+00 3.499988046109E-03 2.705765978154E-03
TRCY   0   1 0.000000000000E+00 0.000000000000E+00 -3.085005700799E-01 5.343386615423E-01 0.000000000000E+00 0.000000000000E+00 0.000000000000E+00 3.499988046109E-03 -4.616704844173E-03
TRCX   0   1 0.000000000000E+00 0.000000000000E+00 -3.934811282138E-01 6.815293058858E-01 0.000000000000E+00 0.000000000000E+00 0.000000000000E+00 3.499988046109E-03 4.162807171930E-03
TRCY   0   1 0.000000000000E+00 0.000000000000E+00 -3.934811282138E-01 6.815293058858E-01 0.000000000000E+00 0.000000000000E+00 0.000000000000E+00 3.499988046109E-03 -7.212753536882E-03
TRCX   0   1 0.000000000000E+00 0.000000000000E+00 -4.556875830087E-01 7.892740461493E-01 0.000000000000E+00 0.000000000000E+00 0.000000000000E+00 2.698490256156E-03 3.540792881608E-03
TRCY   0   1 0.000000000000E+00 0.000000000000E+00 -4.556875830087E-01 7.892740461493E-01 0.000000000000E+00 0.000000000000E+00 0.000000000000E+00 2.698490256156E-03 -6.277328924211E-03
TRCX   0   1 0.000000000000E+00 0.000000000000E+00 -4.914862045626E-01 8.512790775217E-01 0.000000000000E+00 0.000000000000E+00 0.000000000000E+00 1.281504206282E-03 1.852644392303E-03
TRCY   0   1 0.000000000000E+00 0.000000000000E+00 -4.914862045626E-01 8.512790775217E-01 0.000000000000E+00 0.000000000000E+00 0.000000000000E+00 1.281504206282E-03 -3.499104869348E-03
PRIM   0   2 0.000000000000E+00 0.000000000000E+00 0.000000000000E+00 0.000000000000E+00 0.000000000000E+00 0.000000000000E+00 0.000000000000E+00 0.000000000000E+00 0.000000000000E+00
TRCX   0   2 0.000000000000E+00 0.000000000000E+00 9.187660597021E-02 1.591349495674E-01 0.000000000000E+00 0.000000000000E+00 0.000000000000E+00 1.281504206282E-03 -5.757309356937E-04
TRCY   0   2 0.000000000000E+00 0.000000000000E+00 9.187660597021E-02 1.591349495674E-01 0.000000000000E+00 0.000000000000E+00 0.000000000000E+00 1.281504206282E-03 2.274004286514E-03
TRCX   0   2 0.000000000000E+00 0.000000000000E+00 2.057883055271E-01 3.564358007765E-01 0.000000000000E+00 0.000000000000E+00 0.000000000000E+00 2.698490256156E-03 -4.307364084930E-04
TRCY   0   2 0.000000000000E+00 0.000000000000E+00 2.057883055271E-01 3.564358007765E-01 0.000000000000E+00 0.000000000000E+00 0.000000000000E+00 2.698490256156E-03 1.703095237890E-03
TRCX   0   2 0.000000000000E+00 0.000000000000E+00 3.085005700799E-01 5.343386615423E-01 0.000000000000E+00 0.000000000000E+00 0.000000000000E+00 3.499988046109E-03 -1.113168106718E-03
TRCY   0   2 0.000000000000E+00 0.000000000000E+00 3.085005700799E-01 5.343386615423E-01 0.000000000000E+00 0.000000000000E+00 0.000000000000E+00 3.499988046109E-03 -4.341017946636E-04
TRCX   0   2 0.000000000000E+00 0.000000000000E+00 3.934811282138E-01 6.815293058858E-01 0.000000000000E+00 0.000000000000E+00 0.000000000000E+00 3.499988046109E-03 -1.150540391871E-03
TRCY   0   2 0.000000000000E+00 0.000000000000E+00 3.934811282138E-01 6.815293058858E-01 0.000000000000E+00 0.000000000000E+00 0.000000000000E+00 3.499988046109E-03 -1.514458650334E-03
TRCX   0   2 0.000000000000E+00 0.000000000000E+00 4.556875830087E-01 7.892740461493E-01 0.000000000000E+00 0.000000000000E+00 0.000000000000E+00 2.698490256156E-03 5.174859122157E-04
TRCY   0   2 0.000000000000E+00 0.000000000000E+00 4.556875830087E-01 7.892740461493E-01 0.000000000000E+00 0.000000000000E+00 0.000000000000E+00 2.698490256156E-03 4.461366769100E-04
TRCX   0   2 0.000000000000E+00 0.000000000000E+00 4.914862045626E-01 8.512790775217E-01 0.000000000000E+00 0.000000000000E+00 0.000000000000E+00 1.281504206282E-03 2.810750005809E-03
TRCY   0   2 0.000000000000E+00 0.000000000000E+00 4.914862045626E-01 8.512790775217E-01 0.000000000000E+00 0.000000000000E+00 0.000000000000E+00 1.281504206282E-03 3.791778612964E-03
TRCX   0   2 0.000000000000E+00 0.000000000000E+00 1.837532119404E-01 0.000000000000E+00 0.000000000000E+00 0.000000000000E+00 0.000000000000E+00 1.281504206282E-03 -4.430509158091E-04
TRCY   0   2 0.000000000000E+00 0.000000000000E+00 1.837532119404E-01 0.000000000000E+00 0.000000000000E+00 0.000000000000E+00 0.000000000000E+00 1.281504206282E-03 1.833943627391E-03
TRCX   0   2 0.000000000000E+00 0.000000000000E+00 4.115766110542E-01 0.000000000000E+00 0.000000000000E+00 0.000000000000E+00 0.000000000000E+00 2.698490256156E-03 -6.240146484640E-04
TRCY   0   2 0.000000000000E+00 0.000000000000E+00 4.115766110542E-01 0.000000000000E+00 0.000000000000E+00 0.000000000000E+00 0.000000000000E+00 2.698490256156E-03 2.111086523284E-03
TRCX   0   2 0.000000000000E+00 0.000000000000E+00 6.170011401597E-01 0.000000000000E+00 0.000000000000E+00 0.000000000000E+00 0.000000000000E+00 3.499988046109E-03 -1.854432958003E-03
TRCY   0   2 0.000000000000E+00 0.000000000000E+00 6.170011401597E-01 0.000000000000E+00 0.000000000000E+00 0.000000000000E+00 0.000000000000E+00 3.499988046109E-03 2.116037316755E-03
TRCX   0   2 0.000000000000E+00 0.000000000000E+00 7.869622564276E-01 0.000000000000E+00 0.000000000000E+00 0.000000000000E+00 0.000000000000E+00 3.499988046109E-03 -1.146186871573E-03
TRCY   0   2 0.000000000000E+00 0.000000000000E+00 7.869622564276E-01 0.000000000000E+00 0.000000000000E+00 0.000000000000E+00 0.000000000000E+00 3.499988046109E-03 1.891043104139E-03
TRCX   0   2 0.000000000000E+00 0.000000000000E+00 9.113751660173E-01 0.000000000000E+00 0.000000000000E+00 0.000000000000E+00 0.000000000000E+00 2.698490256156E-03 3.323133786006E-03
TRCY   0   2 0.000000000000E+00 0.000000000000E+00 9.113751660173E-01 0.000000000000E+00 0.000000000000E+00 0.000000000000E+00 0.000000000000E+00 2.698490256156E-03 1.576207932546E-03
TRCX   0   2 0.000000000000E+00 0.000000000000E+00 9.829724091253E-01 0.000000000000E+00 0.000000000000E+00 0.000000000000E+00 0.000000000000E+00 1.281504206282E-03 8.838666095112E-03
TRCY   0   2 0.000000000000E+00 0.000000000000E+00 9.829724091253E-01 0.000000000000E+00 0.000000000000E+00 0.000000000000E+00 0.000000000000E+00 1.281504206282E-03 1.335179498017E-03
TRCX   0   2 0.000000000000E+00 0.000000000000E+00 9.187660597021E-02 -1.591349495674E-01 0.000000000000E+00 0.000000000000E+00 0.000000000000E+00 1.281504206282E-03 -1.189312077736E-03
TRCY   0   2 0.000000000000E+00 0.000000000000E+00 9.187660597021E-02 -1.591349495674E-01 0.000000000000E+00 0.000000000000E+00 0.000000000000E+00 1.281504206282E-03 9.005963466802E-04
TRCX   0   2 0.000000000000E+00 0.000000000000E+00 2.057883055271E-01 -3.564358007765E-01 0.000000000000E+00 0.000000000000E+00 0.000000000000E+00 2.698490256156E-03 -1.460626103459E-03
TRCY   0   2 0.000000000000E+00 0.000000000000E+00 2.057883055271E-01 -3.564358007765E-01 0.000000000000E+00 0.000000000000E+00 0.000000000000E+00 2.698490256156E-03 1.089562691723E-03
TRCX   0   2 0.000000000000E+00 0.000000000000E+00 3.085005700799E-01 -5.343386615423E-01 0.000000000000E+00 0.000000000000E+00 0.000000000000E+00 3.499988046109E-03 -1.938015453387E-03
TRCY   0   2 0.000000000000E+00 0.000000000000E+00 3.085005700799E-01 -5.343386615423E-01 0.000000000000E+00 0.000000000000E+00 0.000000000000E+00 3.499988046109E-03 1.838857660628E-03
TRCX   0   2 0.000000000000E+00 0.000000000000E+00 3.934811282138E-01 -6.815293058858E-01 0.000000000000E+00 0.000000000000E+00 0.000000000000E+00 3.499988046109E-03 -1.134927030179E-03
TRCY   0   2 0.000000000000E+00 0.000000000000E+00 3.934811282138E-01 -6.815293058858E-01 0.000000000000E+00 0.000000000000E+00 0.000000000000E+00 3.499988046109E-03 6.106750088950E-04
TRCX   0   2 0.000000000000E+00 0.000000000000E+00 4.556875830087E-01 -7.892740461493E-01 0.000000000000E+00 0.000000000000E+00 0.000000000000E+00 2.698490256156E-03 1.697342432575E-03
TRCY   0   2 0.000000000000E+00 0.000000000000E+00 4.556875830087E-01 -7.892740461493E-01 0.000000000000E+00 0.000000000000E+00 0.000000000000E+00 2.698490256156E-03 -3.961736016194E-03
TRCX   0   2 0.000000000000E+00 0.000000000000E+00 4.914862045626E-01 -8.512790775217E-01 0.000000000000E+00 0.000000000000E+00 0.000000000000E+00 1.281504206282E-03 4.929576933588E-03
TRCY   0   2 0.000000000000E+00 0.000000000000E+00 4.914862045626E-01 -8.512790775217E-01 0.000000000000E+00 0.000000000000E+00 0.000000000000E+00 1.281504206282E-03 -9.251000718340E-03
TRCX   0   2 0.000000000000E+00 0.000000000000E+00 -9.187660597021E-02 -1.591349495674E-01 0.000000000000E+00 0.000000000000E+00 0.000000000000E+00 1.281504206282E-03 -2.067173607774E-03
TRCY   0   2 0.000000000000E+00 0.000000000000E+00 -9.187660597021E-02 -1.591349495674E-01 0.000000000000E+00 0.000000000000E+00 0.000000000000E+00 1.281504206282E-03 5.723196269525E-04
TRCX   0   2 0.000000000000E+00 0.000000000000E+00 -2.057883055271E-01 -3.564358007765E-01 0.000000000000E+00 0.000000000000E+00 0.000000000000E+00 2.698490256156E-03 -2.088848899549E-03
TRCY   0   2 0.000000000000E+00 0.000000000000E+00 -2.057883055271E-01 -3.564358007765E-01 0.000000000000E+00 0.000000000000E+00 0.000000000000E+00 2.698490256156E-03 7.012331777894E-04
TRCX   0   2 0.000000000000E+00 0.000000000000E+00 -3.085005700799E-01 -5.343386615423E-01 0.000000000000E+00 0.000000000000E+00 0.000000000000E+00 3.499988046109E-03 -1.207131835288E-03
TRCY   0   2 0.000000000000E+00 0.000000000000E+00 -3.085005700799E-01 -5.343386615423E-01 0.000000000000E+00 0.000000000000E+00 0.000000000000E+00 3.499988046109E-03 1.967809781627E-03
TRCX   0   2 0.000000000000E+00 0.000000000000E+00 -3.934811282138E-01 -6.815293058858E-01 0.000000000000E+00 0.000000000000E+00 0.000000000000E+00 3.499988046109E-03 -9.355430813986E-04
TRCY   0   2 0.000000000000E+00 0.000000000000E+00 -3.934811282138E-01 -6.815293058858E-01 0.000000000000E+00 0.000000000000E+00 0.000000000000E+00 3.499988046109E-03 1.795542485494E-03
TRCX   0   2 0.000000000000E+00 0.000000000000E+00 -4.556875830087E-01 -7.892740461493E-01 0.000000000000E+00 0.000000000000E+00 0.000000000000E+00 2.698490256156E-03 -2.389359943363E-03
TRCY   0   2 0.000000000000E+00 0.000000000000E+00 -4.556875830087E-01 -7.892740461493E-01 0.000000000000E+00 0.000000000000E+00 0.000000000000E+00 2.698490256156E-03 -1.517261864921E-03
TRCX   0   2 0.000000000000E+00 0.000000000000E+00 -4.914862045626E-01 -8.512790775217E-01 0.000000000000E+00 0.000000000000E+00 0.000000000000E+00 1.281504206282E-03 -4.542309141129E-03
TRCY   0   2 0.000000000000E+00 0.000000000000E+00 -4.914862045626E-01 -8.512790775217E-01 0.000000000000E+00 0.000000000000E+00 0.000000000000E+00 1.281504206282E-03 -5.853930704978E-03
TRCX   0   2 0.000000000000E+00 0.000000000000E+00 -1.837532119404E-01 1.407023591125E-16 0.000000000000E+00 0.000000000000E+00 0.000000000000E+00 1.281504206282E-03 -2.066131541982E-03
TRCY   0   2 0.000000000000E+00 0.000000000000E+00 -1.837532119404E-01 1.407023591125E-16 0.000000000000E+00 0.000000000000E+00 0.000000000000E+00 1.281504206282E-03 1.035980804682E-03
TRCX   0   2 0.000000000000E+00 0.000000000000E+00 -4.115766110542E-01 3.151498660585E-16 0.000000000000E+00 0.000000000000E+00 0.000000000000E+00 2.698490256156E-03 -1.121682074821E-03
TRCY   0   2 0.000000000000E+00 0.000000000000E+00 -4.115766110542E-01 3.151498660585E-16 0.000000000000E+00 0.000000000000E+00 0.000000000000E+00 2.698490256156E-03 4.445709008287E-04
TRCX   0   2 0.000000000000E+00 0.000000000000E+00 -6.170011401597E-01 4.724462504836E-16 0.000000000000E+00 0.000000000000E+00 0.000000000000E+00 3.499988046109E-03 1.636665218820E-03
TRCY   0   2 0.000000000000E+00 0.000000000000E+00 -6.170011401597E-01 4.724462504836E-16 0.000000000000E+00 0.000000000000E+00 0.000000000000E+00 3.499988046109E-03 -1.262268500337E-04
TRCX   0   2 0.000000000000E+00 0.000000000000E+00 -7.869622564276E-01 6.025878124391E-16 0.000000000000E+00 0.000000000000E+00 0.000000000000E+00 3.499988046109E-03 3.156602355455E-03
TRCY   0   2 0.000000000000E+00 0.000000000000E+00 -7.869622564276E-01 6.025878124391E-16 0.000000000000E+00 0.000000000000E+00 0.000000000000E+00 3.499988046109E-03 -6.524770239231E-04
TRCX   0   2 0.000000000000E+00 0.000000000000E+00 -9.113751660173E-01 6.978524867187E-16 0.000000000000E+00 0.000000000000E+00 0.000000000000E+00 2.698490256156E-03 1.115870932171E-03
TRCY   0   2 0.000000000000E+00 0.000000000000E+00 -9.113751660173E-01 6.978524867187E-16 0.000000000000E+00 0.000000000000E+00 0.000000000000E+00 2.698490256156E-03 -1.103447597185E-03
TRCX   0   2 0.000000000000E+00 0.000000000000E+00 -9.829724091253E-01 7.526754794972E-16 0.000000000000E+00 0.000000000000E+00 0.000000000000E+00 1.281504206282E-03 -2.608811675833E-03
TRCY   0   2 0.000000000000E+00 0.000000000000E+00 -9.829724091253E-01 7.526754794972E-16 0.000000000000E+00 0.000000000000E+00 0.000000000000E+00 1.281504206282E-03 -1.404574878395E-03
TRCX   0   2 0.000000000000E+00 0.000000000000E+00 -9.187660597021E-02 1.591349495674E-01 0.000000000000E+00 0.000000000000E+00 0.000000000000E+00 1.281504206282E-03 -1.321819208675E-03
TRCY   0   2 0.000000000000E+00 0.000000000000E+00 -9.187660597021E-02 1.591349495674E-01 0.000000000000E+00 0.000000000000E+00 0.000000000000E+00 1.281504206282E-03 1.819822905436E-03
TRCX   0   2 0.000000000000E+00 0.000000000000E+00 -2.057883055271E-01 3.564358007765E-01 0.000000000000E+00 0.000000000000E+00 0.000000000000E+00 2.698490256156E-03 -3.108512509993E-04
TRCY   0   2 0.000000000000E+00 0.000000000000E+00 -2.057883055271E-01 3.564358007765E-01 0.000000000000E+00 0.000000000000E+00 0.000000000000E+00 2.698490256156E-03 6.018132617918E-04
TRCX   0   2 0.000000000000E+00 0.000000000000E+00 -3.085005700799E-01 5.343386615423E-01 0.000000000000E+00 0.000000000000E+00 0.000000000000E+00 3.499988046109E-03 1.606271258746E-03
TRCY   0   2 0.000000000000E+00 0.000000000000E+00 -3.085005700799E-01 5.343386615423E-01 0.000000000000E+00 0.000000000000E+00 0.000000000000E+00 3.499988046109E-03 -2.194688044947E-03
TRCX   0   2 0.000000000000E+00 0.000000000000E+00 -3.934811282138E-01 6.815293058858E-01 0.000000000000E+00 0.000000000000E+00 0.000000000000E+00 3.499988046109E-03 2.856589730696E-03
TRCY   0   2 0.000000000000E+00 0.000000000000E+00 -3.934811282138E-01 6.815293058858E-01 0.000000000000E+00 0.000000000000E+00 0.000000000000E+00 3.499988046109E-03 -3.939488309483E-03