VERS 250115
BLNK Constraints.
EFLX   1   3 0.000000000000E+00 0.000000000000E+00 0.000000000000E+00 0.000000000000E+00 0.000000000000E+00 0.000000000000E+00 6.300000000000E+01 1.000000000000E+00 6.300000000007E+01
BLNK 
BLNK Transmission.
CODA   0   1 1.000000000000E+00 0.000000000000E+00 0.000000000000E+00 0.000000000000E+00 0.000000000000E+00 0.000000000000E+00 1.000000000000E+00 0.000000000000E+00 9.555550445590E-01
OPGT   5   0 0.000000000000E+00 0.000000000000E+00 0.000000000000E+00 0.000000000000E+00 0.000000000000E+00 0.000000000000E+00 9.000000000000E-01 1.000000000000E-01 9.000000000000E-01
CODA   0   2 1.000000000000E+00 0.000000000000E+00 0.000000000000E+00 0.000000000000E+00 0.000000000000E+00 0.000000000000E+00 1.000000000000E+00 0.000000000000E+00 9.901808719277E-01
OPGT   7   0 0.000000000000E+00 0.000000000000E+00 0.000000000000E+00 0.000000000000E+00 0.000000000000E+00 0.000000000000E+00 9.000000000000E-01 1.000000000000E-01 9.000000000000E-01
CODA   0   3 1.000000000000E+00 0.000000000000E+00 0.000000000000E+00 0.000000000000E+00 0.000000000000E+00 0.000000000000E+00 1.000000000000E+00 0.000000000000E+00 9.849956708765E-01
OPGT   9   0 0.000000000000E+00 0.000000000000E+00 0.000000000000E+00 0.000000000000E+00 0.000000000000E+00 0.000000000000E+00 9.000000000000E-01 1.000000000000E-01 9.000000000000E-01
CODA   0   4 1.000000000000E+00 0.000000000000E+00 0.000000000000E+00 0.000000000000E+00 0.000000000000E+00 0.000000000000E+00 1.000000000000E+00 0.000000000000E+00 9.861605523861E-01
OPGT  11   0 0.000000000000E+00 0.000000000000E+00 0.000000000000E+00 0.000000000000E+00 0.000000000000E+00 0.000000000000E+00 9.000000000000E-01 1.000000000000E-01 9.000000000000E-01
CODA   0   5 1.000000000000E+00 0.000000000000E+00 0.000000000000E+00 0.000000000000E+00 0.000000000000E+00 0.000000000000E+00 1.000000000000E+00 0.000000000000E+00 9.902400540571E-01
OPGT  13   0 0.000000000000E+00 0.000000000000E+00 0.000000000000E+00 0.000000000000E+00 0.000000000000E+00 0.000000000000E+00 9.000000000000E-01 1.000000000000E-01 9.000000000000E-01
CODA   0   5 1.000000000000E+00 0.000000000000E+00 0.000000000000E+00 0.000000000000E+00 0.000000000000E+00 0.000000000000E+00 1.000000000000E+00 0.000000000000E+00 9.902400540571E-01
OPGT  15   0 0.000000000000E+00 0.000000000000E+00 0.000000000000E+00 0.000000000000E+00 0.000000000000E+00 0.000000000000E+00 9.000000000000E-01 1.000000000000E-01 9.000000000000E-01
BLNK 
DMFS   0   0 0.000000000000E+00 0.000000000000E+00 0.000000000000E+00 0.000000000000E+00 0.000000000000E+00 0.000000000000E+00 0.000000000000E+00 0.000000000000E+00 0.000000000000E+00
CONF   1   0 0.000000000000E+00 0.000000000000E+00 0.000000000000E+00 0.000000000000E+00 0.000000000000E+00 0.000000000000E+00 0.000000000000E+00 0.000000000000E+00 0.000000000000E+00
BLNK No air or glass constraints.
BLNK Operands for field 1.
PRIM   0   1 0.000000000000E+00 0.000000000000E+00 0.000000000000E+00 0.000000000000E+00 0.000000000000E+00 0.000000000000E+00 0.000000000000E+00 0.000000000000E+00 0.000000000000E+00
ANCX   0   1 0.000000000000E+00 0.000000000000E+00 9.187660597021E-02 1.591349495674E-01 0.000000000000E+00 0.000000000000E+00 0.000000000000E+00 8.155026767248E-04 -1.067334642512E-06
ANCY   0   1 0.000000000000E+00 0.000000000000E+00 9.187660597021E-02 1.591349495674E-01 0.000000000000E+00 0.000000000000E+00 0.000000000000E+00 8.155026767248E-04 -1.848677829515E-06
ANCX   0   1 0.000000000000E+00 0.000000000000E+00 2.057883055271E-01 3.564358007765E-01 0.000000000000E+00 0.000000000000E+00 0.000000000000E+00 1.717221072099E-03 -4.471705144983E-06
ANCY   0   1 0.000000000000E+00 0.000000000000E+00 2.057883055271E-01 3.564358007765E-01 0.000000000000E+00 0.000000000000E+00 0.000000000000E+00 1.717221072099E-03 -7.745220507583E-06
ANCX   0   1 0.000000000000E+00 0.000000000000E+00 3.085005700799E-01 5.343386615423E-01 0.000000000000E+00 0.000000000000E+00 0.000000000000E+00 2.227265120251E-03 -8.783145691561E-06
ANCY   0   1 0.000000000000E+00 0.000000000000E+00 3.085005700799E-01 5.343386615423E-01 0.000000000000E+00 0.000000000000E+00 0.000000000000E+00 2.227265120251E-03 -1.521285458809E-05
ANCX   0   1 0.000000000000E+00 0.000000000000E+00 3.934811282138E-01 6.815293058858E-01 0.000000000000E+00 0.000000000000E+00 0.000000000000E+00 2.227265120251E-03 -8.561416867364E-06
ANCY   0   1 0.000000000000E+00 0.000000000000E+00 3.934811282138E-01 6.815293058858E-01 0.000000000000E+00 0.000000000000E+00 0.000000000000E+00 2.227265120251E-03 -1.482880899903E-05
ANCX   0   1 0.000000000000E+00 0.000000000000E+00 4.556875830087E-01 7.892740461493E-01 0.000000000000E+00 0.000000000000E+00 0.000000000000E+00 1.717221072099E-03 -8.520956627513E-07
ANCY   0   1 0.000000000000E+00 0.000000000000E+00 4.556875830087E-01 7.892740461493E-01 0.000000000000E+00 0.000000000000E+00 0.000000000000E+00 1.717221072099E-03 -1.475872980788E-06
ANCX   0   1 0.000000000000E+00 0.000000000000E+00 4.914862045626E-01 8.512790775217E-01 0.000000000000E+00 0.000000000000E+00 0.000000000000E+00 8.155026767248E-04 9.052765442961E-06
ANCY   0   1 0.000000000000E+00 0.000000000000E+00 4.914862045626E-01 8.512790775217E-01 0.000000000000E+00 0.000000000000E+00 0.000000000000E+00 8.155026767248E-04 1.567984969620E-05
ANCX   0   1 0.000000000000E+00 0.000000000000E+00 1.837532119404E-01 0.000000000000E+00 0.000000000000E+00 0.000000000000E+00 0.000000000000E+00 8.155026767248E-04 -2.134669285028E-06
ANCY   0   1 0.000000000000E+00 0.000000000000E+00 1.837532119404E-01 0.000000000000E+00 0.000000000000E+00 0.000000000000E+00 0.000000000000E+00 8.155026767248E-04 -2.002355230296E-18
ANCX   0   1 0.000000000000E+00 0.000000000000E+00 4.115766110542E-01 0.000000000000E+00 0.000000000000E+00 0.000000000000E+00 0.000000000000E+00 1.717221072099E-03 -8.943410289959E-06
ANCY   0   1 0.000000000000E+00 0.000000000000E+00 4.115766110542E-01 0.000000000000E+00 0.000000000000E+00 0.000000000000E+00 0.000000000000E+00 1.717221072099E-03 -2.002355230296E-18
ANCX   0   1 0.000000000000E+00 0.000000000000E+00 6.170011401597E-01 0.000000000000E+00 0.000000000000E+00 0.000000000000E+00 0.000000000000E+00 2.227265120251E-03 -1.756629138312E-05
ANCY   0   1 0.000000000000E+00 0.000000000000E+00 6.170011401597E-01 0.000000000000E+00 0.000000000000E+00 0.000000000000E+00 0.000000000000E+00 2.227265120251E-03 -2.002355230296E-18
ANCX   0   1 0.000000000000E+00 0.000000000000E+00 7.869622564276E-01 0.000000000000E+00 0.000000000000E+00 0.000000000000E+00 0.000000000000E+00 2.227265120251E-03 -1.712283373466E-05
ANCY   0   1 0.000000000000E+00 0.000000000000E+00 7.869622564276E-01 0.000000000000E+00 0.000000000000E+00 0.000000000000E+00 0.000000000000E+00 2.227265120251E-03 -2.002355230296E-18
ANCX   0   1 0.000000000000E+00 0.000000000000E+00 9.113751660173E-01 0.000000000000E+00 0.000000000000E+00 0.000000000000E+00 0.000000000000E+00 1.717221072099E-03 -1.704191325489E-06
ANCY   0   1 0.000000000000E+00 0.000000000000E+00 9.113751660173E-01 0.000000000000E+00 0.000000000000E+00 0.000000000000E+00 0.000000000000E+00 1.717221072099E-03 -2.002355230296E-18
ANCX   0   1 0.000000000000E+00 0.000000000000E+00 9.829724091253E-01 0.000000000000E+00 0.000000000000E+00 0.000000000000E+00 0.000000000000E+00 8.155026767248E-04 1.810553088594E-05
ANCY   0   1 0.000000000000E+00 0.000000000000E+00 9.829724091253E-01 0.000000000000E+00 0.000000000000E+00 0.000000000000E+00 0.000000000000E+00 8.155026767248E-04 -2.002355230296E-18
ANCX   0   1 0.000000000000E+00 0.000000000000E+00 9.187660597021E-02 -1.591349495674E-01 0.000000000000E+00 0.000000000000E+00 0.000000000000E+00 8.155026767248E-04 -1.067334642512E-06
ANCY   0   1 0.000000000000E+00 0.000000000000E+00 9.187660597021E-02 -1.591349495674E-01 0.000000000000E+00 0.000000000000E+00 0.000000000000E+00 8.155026767248E-04 1.848677829511E-06
ANCX   0   1 0.000000000000E+00 0.000000000000E+00 2.057883055271E-01 -3.564358007765E-01 0.000000000000E+00 0.000000000000E+00 0.000000000000E+00 1.717221072099E-03 -4.471705144983E-06
ANCY   0   1 0.000000000000E+00 0.000000000000E+00 2.057883055271E-01 -3.564358007765E-01 0.000000000000E+00 0.000000000000E+00 0.000000000000E+00 1.717221072099E-03 7.745220507579E-06
ANCX   0   1 0.000000000000E+00 0.000000000000E+00 3.085005700799E-01 -5.343386615423E-01 0.000000000000E+00 0.000000000000E+00 0.000000000000E+00 2.227265120251E-03 -8.783145691561E-06
ANCY   0   1 0.000000000000E+00 0.000000000000E+00 3.085005700799E-01 -5.343386615423E-01 0.000000000000E+00 0.000000000000E+00 0.000000000000E+00 2.227265120251E-03 1.521285458809E-05
ANCX   0   1 0.000000000000E+00 0.000000000000E+00 3.934811282138E-01 -6.815293058858E-01 0.000000000000E+00 0.000000000000E+00 0.000000000000E+00 2.227265120251E-03 -8.561416867364E-06
ANCY   0   1 0.000000000000E+00 0.000000000000E+00 3.934811282138E-01 -6.815293058858E-01 0.000000000000E+00 0.000000000000E+00 0.000000000000E+00 2.227265120251E-03 1.482880899903E-05
ANCX   0   1 0.000000000000E+00 0.000000000000E+00 4.556875830087E-01 -7.892740461493E-01 0.000000000000E+00 0.000000000000E+00 0.000000000000E+00 1.717221072099E-03 -8.520956627513E-07
ANCY   0   1 0.000000000000E+00 0.000000000000E+00 4.556875830087E-01 -7.892740461493E-01 0.000000000000E+00 0.000000000000E+00 0.000000000000E+00 1.717221072099E-03 1.475872980784E-06
ANCX   0   1 0.000000000000E+00 0.000000000000E+00 4.914862045626E-01 -8.512790775217E-01 0.000000000000E+00 0.000000000000E+00 0.000000000000E+00 8.155026767248E-04 9.052765442961E-06
ANCY   0   1 0.000000000000E+00 0.000000000000E+00 4.914862045626E-01 -8.512790775217E-01 0.000000000000E+00 0.000000000000E+00 0.000000000000E+00 8.155026767248E-04 -1.567984969621E-05
ANCX   0   1 0.000000000000E+00 0.000000000000E+00 -9.187660597021E-02 -1.591349495674E-01 0.000000000000E+00 0.000000000000E+00 0.000000000000E+00 8.155026767248E-04 1.067334642514E-06
ANCY   0   1 0.000000000000E+00 0.000000000000E+00 -9.187660597021E-02 -1.591349495674E-01 0.000000000000E+00 0.000000000000E+00 0.000000000000E+00 8.155026767248E-04 1.848677829513E-06
ANCX   0   1 0.000000000000E+00 0.000000000000E+00 -2.057883055271E-01 -3.564358007765E-01 0.000000000000E+00 0.000000000000E+00 0.000000000000E+00 1.717221072099E-03 4.471705144983E-06
ANCY   0   1 0.000000000000E+00 0.000000000000E+00 -2.057883055271E-01 -3.564358007765E-01 0.000000000000E+00 0.000000000000E+00 0.000000000000E+00 1.717221072099E-03 7.745220507565E-06
ANCX   0   1 0.000000000000E+00 0.000000000000E+00 -3.085005700799E-01 -5.343386615423E-01 0.000000000000E+00 0.000000000000E+00 0.000000000000E+00 2.227265120251E-03 8.783145691565E-06
ANCY   0   1 0.000000000000E+00 0.000000000000E+00 -3.085005700799E-01 -5.343386615423E-01 0.000000000000E+00 0.000000000000E+00 0.000000000000E+00 2.227265120251E-03 1.521285458809E-05
ANCX   0   1 0.000000000000E+00 0.000000000000E+00 -3.934811282138E-01 -6.815293058858E-01 0.000000000000E+00 0.000000000000E+00 0.000000000000E+00 2.227265120251E-03 8.561416867336E-06
ANCY   0   1 0.000000000000E+00 0.000000000000E+00 -3.934811282138E-01 -6.815293058858E-01 0.000000000000E+00 0.000000000000E+00 0.000000000000E+00 2.227265120251E-03 1.482880899903E-05
ANCX   0   1 0.000000000000E+00 0.000000000000E+00 -4.556875830087E-01 -7.892740461493E-01 0.000000000000E+00 0.000000000000E+00 0.000000000000E+00 1.717221072099E-03 8.520956627440E-07
ANCY   0   1 0.000000000000E+00 0.000000000000E+00 -4.556875830087E-01 -7.892740461493E-01 0.000000000000E+00 0.000000000000E+00 0.000000000000E+00 1.717221072099E-03 1.475872980811E-06
ANCX   0   1 0.000000000000E+00 0.000000000000E+00 -4.914862045626E-01 -8.512790775217E-01 0.000000000000E+00 0.000000000000E+00 0.000000000000E+00 8.155026767248E-04 -9.052765442962E-06
ANCY   0   1 0.000000000000E+00 0.000000000000E+00 -4.914862045626E-01 -8.512790775217E-01 0.000000000000E+00 0.000000000000E+00 0.000000000000E+00 8.155026767248E-04 -1.567984969621E-05
ANCX   0   1 0.000000000000E+00 0.000000000000E+00 -1.837532119404E-01 1.407023591125E-16 0.000000000000E+00 0.000000000000E+00 0.000000000000E+00 8.155026767248E-04 2.134669285024E-06
ANCY   0   1 0.000000000000E+00 0.000000000000E+00 -1.837532119404E-01 1.407023591125E-16 0.000000000000E+00 0.000000000000E+00 0.000000000000E+00 8.155026767248E-04 -2.003989775897E-18
ANCX   0   1 0.000000000000E+00 0.000000000000E+00 -4.115766110542E-01 3.151498660585E-16 0.000000000000E+00 0.000000000000E+00 0.000000000000E+00 1.717221072099E-03 8.943410289966E-06
ANCY   0   1 0.000000000000E+00 0.000000000000E+00 -4.115766110542E-01 3.151498660585E-16 0.000000000000E+00 0.000000000000E+00 0.000000000000E+00 1.717221072099E-03 -2.009203322435E-18
ANCX   0   1 0.000000000000E+00 0.000000000000E+00 -6.170011401597E-01 4.724462504836E-16 0.000000000000E+00 0.000000000000E+00 0.000000000000E+00 2.227265120251E-03 1.756629138312E-05
ANCY   0   1 0.000000000000E+00 0.000000000000E+00 -6.170011401597E-01 4.724462504836E-16 0.000000000000E+00 0.000000000000E+00 0.000000000000E+00 2.227265120251E-03 -2.015805980965E-18
ANCX   0   1 0.000000000000E+00 0.000000000000E+00 -7.869622564276E-01 6.025878124391E-16 0.000000000000E+00 0.000000000000E+00 0.000000000000E+00 2.227265120251E-03 1.712283373470E-05
ANCY   0   1 0.000000000000E+00 0.000000000000E+00 -7.869622564276E-01 6.025878124391E-16 0.000000000000E+00 0.000000000000E+00 0.000000000000E+00 2.227265120251E-03 -2.015466419350E-18
ANCX   0   1 0.000000000000E+00 0.000000000000E+00 -9.113751660173E-01 6.978524867187E-16 0.000000000000E+00 0.000000000000E+00 0.000000000000E+00 1.717221072099E-03 1.704191325488E-06
ANCY   0   1 0.000000000000E+00 0.000000000000E+00 -9.113751660173E-01 6.978524867187E-16 0.000000000000E+00 0.000000000000E+00 0.000000000000E+00 1.717221072099E-03 -2.003660153009E-18
ANCX   0   1 0.000000000000E+00 0.000000000000E+00 -9.829724091253E-01 7.526754794972E-16 0.000000000000E+00 0.000000000000E+00 0.000000000000E+00 8.155026767248E-04 -1.810553088594E-05
ANCY   0   1 0.000000000000E+00 0.000000000000E+00 -9.829724091253E-01 7.526754794972E-16 0.000000000000E+00 0.000000000000E+00 0.000000000000E+00 8.155026767248E-04 -1.988491576530E-18
ANCX   0   1 0.000000000000E+00 0.000000000000E+00 -9.187660597021E-02 1.591349495674E-01 0.000000000000E+00 0.000000000000E+00 0.000000000000E+00 8.155026767248E-04 1.067334642514E-06
ANCY   0   1 0.000000000000E+00 0.000000000000E+00 -9.187660597021E-02 1.591349495674E-01 0.000000000000E+00 0.000000000000E+00 0.000000000000E+00 8.155026767248E-04 -1.848677829515E-06
ANCX   0   1 0.000000000000E+00 0.000000000000E+00 -2.057883055271E-01 3.564358007765E-01 0.000000000000E+00 0.000000000000E+00 0.000000000000E+00 1.717221072099E-03 4.471705144986E-06
ANCY   0   1 0.000000000000E+00 0.000000000000E+00 -2.057883055271E-01 3.564358007765E-01 0.000000000000E+00 0.000000000000E+00 0.000000000000E+00 1.717221072099E-03 -7.745220507576E-06
ANCX   0   1 0.000000000000E+00 0.000000000000E+00 -3.085005700799E-01 5.343386615423E-01 0.000000000000E+00 0.000000000000E+00 0.000000000000E+00 2.227265120251E-03 8.783145691568E-06
ANCY   0   1 0.000000000000E+00 0.000000000000E+00 -3.085005700799E-01 5.343386615423E-01 0.000000000000E+00 0.000000000000E+00 0.000000000000E+00 2.227265120251E-03 -1.521285458808E-05
ANCX   0   1 0.000000000000E+00 0.000000000000E+00 -3.934811282138E-01 6.815293058858E-01 0.000000000000E+00 0.000000000000E+00 0.000000000000E+00 2.227265120251E-03 8.561416867343E-06
ANCY   0   1 0.000000000000E+00 0.000000000000E+00 -3.934811282138E-01 6.815293058858E-01 0.000000000000E+00 0.000000000000E+00 0.000000000000E+00 2.227265120251E-03 -1.482880899900E-05
ANCX   0   1 0.000000000000E+00 0.000000000000E+00 -4.556875830087E-01 7.892740461493E-01 0.000000000000E+00 0.000000000000E+00 0.000000000000E+00 1.717221072099E-03 8.520956627579E-07
ANCY   0   1 0.000000000000E+00 0.000000000000E+00 -4.556875830087E-01 7.892740461493E-01 0.000000000000E+00 0.000000000000E+00 0.000000000000E+00 1.717221072099E-03 -1.475872980788E-06
ANCX   0   1 0.000000000000E+00 0.000000000000E+00 -4.914862045626E-01 8.512790775217E-01 0.000000000000E+00 0.000000000000E+00 0.000000000000E+00 8.155026767248E-04 -9.052765442962E-06
ANCY   0   1 0.000000000000E+00 0.000000000000E+00 -4.914862045626E-01 8.512790775217E-01 0.000000000000E+00 0.000000000000E+00 0.000000000000E+00 8.155026767248E-04 1.567984969620E-05
PRIM   0   2 0.000000000000E+00 0.000000000000E+00 0.000000000000E+00 0.000000000000E+00 0.000000000000E+00 0.000000000000E+00 0.000000000000E+00 0.000000000000E+00 0.000000000000E+00
ANCX   0   2 0.000000000000E+00 0.000000000000E+00 9.187660597021E-02 1.591349495674E-01 0.000000000000E+00 0.000000000000E+00 0.000000000000E+00 8.155026767248E-04 3.462805649735E-07
ANCY   0   2 0.000000000000E+00 0.000000000000E+00 9.187660597021E-02 1.591349495674E-01 0.000000000000E+00 0.000000000000E+00 0.000000000000E+00 8.155026767248E-04 5.997755322060E-07
ANCX   0   2 0.000000000000E+00 0.000000000000E+00 2.057883055271E-01 3.564358007765E-01 0.000000000000E+00 0.000000000000E+00 0.000000000000E+00 1.717221072099E-03 -1.930906678067E-06
ANCY   0   2 0.000000000000E+00 0.000000000000E+00 2.057883055271E-01 3.564358007765E-01 0.000000000000E+00 0.000000000000E+00 0.000000000000E+00 1.717221072099E-03 -3.344428471095E-06
ANCX   0   2 0.000000000000E+00 0.000000000000E+00 3.085005700799E-01 5.343386615423E-01 0.000000000000E+00 0.000000000000E+00 0.000000000000E+00 2.227265120251E-03 -6.502619426773E-06
ANCY   0   2 0.000000000000E+00 0.000000000000E+00 3.085005700799E-01 5.343386615423E-01 0.000000000000E+00 0.000000000000E+00 0.000000000000E+00 2.227265120251E-03 -1.126286722945E-05
ANCX   0   2 0.000000000000E+00 0.000000000000E+00 3.934811282138E-01 6.815293058858E-01 0.000000000000E+00 0.000000000000E+00 0.000000000000E+00 2.227265120251E-03 -7.990950185680E-06
ANCY   0   2 0.000000000000E+00 0.000000000000E+00 3.934811282138E-01 6.815293058858E-01 0.000000000000E+00 0.000000000000E+00 0.000000000000E+00 2.227265120251E-03 -1.384073172238E-05
ANCX   0   2 0.000000000000E+00 0.000000000000E+00 4.556875830087E-01 7.892740461493E-01 0.000000000000E+00 0.000000000000E+00 0.000000000000E+00 1.717221072099E-03 -2.742774480161E-06
ANCY   0   2 0.000000000000E+00 0.000000000000E+00 4.556875830087E-01 7.892740461493E-01 0.000000000000E+00 0.000000000000E+00 0.000000000000E+00 1.717221072099E-03 -4.750624753331E-06
ANCX   0   2 0.000000000000E+00 0.000000000000E+00 4.914862045626E-01 8.512790775217E-01 0.000000000000E+00 0.000000000000E+00 0.000000000000E+00 8.155026767248E-04 5.158211685826E-06
ANCY   0   2 0.000000000000E+00 0.000000000000E+00 4.914862045626E-01 8.512790775217E-01 0.000000000000E+00 0.000000000000E+00 0.000000000000E+00 8.155026767248E-04 8.934284716072E-06
ANCX   0   2 0.000000000000E+00 0.000000000000E+00 1.837532119404E-01 0.000000000000E+00 0.000000000000E+00 0.000000000000E+00 0.000000000000E+00 8.155026767248E-04 6.925611299476E-07
ANCY   0   2 0.000000000000E+00 0.000000000000E+00 1.837532119404E-01 0.000000000000E+00 0.000000000000E+00 0.000000000000E+00 0.000000000000E+00 8.155026767248E-04 -6.248906526541E-19
ANCX   0   2 0.000000000000E+00 0.000000000000E+00 4.115766110542E-01 0.000000000000E+00 0.000000000000E+00 0.000000000000E+00 0.000000000000E+00 1.717221072099E-03 -3.861813356134E-06
ANCY   0   2 0.000000000000E+00 0.000000000000E+00 4.115766110542E-01 0.000000000000E+00 0.000000000000E+00 0.000000000000E+00 0.000000000000E+00 1.717221072099E-03 -6.248906526541E-19
ANCX   0   2 0.000000000000E+00 0.000000000000E+00 6.170011401597E-01 0.000000000000E+00 0.000000000000E+00 0.000000000000E+00 0.000000000000E+00 2.227265120251E-03 -1.300523885353E-05
ANCY   0   2 0.000000000000E+00 0.000000000000E+00 6.170011401597E-01 0.000000000000E+00 0.000000000000E+00 0.000000000000E+00 0.000000000000E+00 2.227265120251E-03 -6.248906526541E-19
ANCX   0   2 0.000000000000E+00 0.000000000000E+00 7.869622564276E-01 0.000000000000E+00 0.000000000000E+00 0.000000000000E+00 0.000000000000E+00 2.227265120251E-03 -1.598190037135E-05
ANCY   0   2 0.000000000000E+00 0.000000000000E+00 7.869622564276E-01 0.000000000000E+00 0.000000000000E+00 0.000000000000E+00 0.000000000000E+00 2.227265120251E-03 -6.248906526541E-19
ANCX   0   2 0.000000000000E+00 0.000000000000E+00 9.113751660173E-01 0.000000000000E+00 0.000000000000E+00 0.000000000000E+00 0.000000000000E+00 1.717221072099E-03 -5.485548960349E-06
ANCY   0   2 0.000000000000E+00 0.000000000000E+00 9.113751660173E-01 0.000000000000E+00 0.000000000000E+00 0.000000000000E+00 0.000000000000E+00 1.717221072099E-03 -6.248906526541E-19
ANCX   0   2 0.000000000000E+00 0.000000000000E+00 9.829724091253E-01 0.000000000000E+00 0.000000000000E+00 0.000000000000E+00 0.000000000000E+00 8.155026767248E-04 1.031642337168E-05
ANCY   0   2 0.000000000000E+00 0.000000000000E+00 9.829724091253E-01 0.000000000000E+00 0.000000000000E+00 0.000000000000E+00 0.000000000000E+00 8.155026767248E-04 -6.248906526541E-19
ANCX   0   2 0.000000000000E+00 0.000000000000E+00 9.187660597021E-02 -1.591349495674E-01 0.000000000000E+00 0.000000000000E+00 0.000000000000E+00 8.155026767248E-04 3.462805649735E-07
ANCY   0   2 0.000000000000E+00 0.000000000000E+00 9.187660597021E-02 -1.591349495674E-01 0.000000000000E+00 0.000000000000E+00 0.000000000000E+00 8.155026767248E-04 -5.997755322072E-07
ANCX   0   2 0.000000000000E+00 0.000000000000E+00 2.057883055271E-01 -3.564358007765E-01 0.000000000000E+00 0.000000000000E+00 0.000000000000E+00 1.717221072099E-03 -1.930906678067E-06
ANCY   0   2 0.000000000000E+00 0.000000000000E+00 2.057883055271E-01 -3.564358007765E-01 0.000000000000E+00 0.000000000000E+00 0.000000000000E+00 1.717221072099E-03 3.344428471094E-06
ANCX   0   2 0.000000000000E+00 0.000000000000E+00 3.085005700799E-01 -5.343386615423E-01 0.000000000000E+00 0.000000000000E+00 0.000000000000E+00 2.227265120251E-03 -6.502619426773E-06
ANCY   0   2 0.000000000000E+00 0.000000000000E+00 3.085005700799E-01 -5.343386615423E-01 0.000000000000E+00 0.000000000000E+00 0.000000000000E+00 2.227265120251E-03 1.126286722945E-05
ANCX   0   2 0.000000000000E+00 0.000000000000E+00 3.934811282138E-01 -6.815293058858E-01 0.000000000000E+00 0.000000000000E+00 0.000000000000E+00 2.227265120251E-03 -7.990950185680E-06
ANCY   0   2 0.000000000000E+00 0.000000000000E+00 3.934811282138E-01 -6.815293058858E-01 0.000000000000E+00 0.000000000000E+00 0.000000000000E+00 2.227265120251E-03 1.384073172238E-05
ANCX   0   2 0.000000000000E+00 0.000000000000E+00 4.556875830087E-01 -7.892740461493E-01 0.000000000000E+00 0.000000000000E+00 0.000000000000E+00 1.717221072099E-03 -2.742774480161E-06
ANCY   0   2 0.000000000000E+00 0.000000000000E+00 4.556875830087E-01 -7.892740461493E-01 0.000000000000E+00 0.000000000000E+00 0.000000000000E+00 1.717221072099E-03 4.750624753330E-06
ANCX   0   2 0.000000000000E+00 0.000000000000E+00 4.914862045626E-01 -8.512790775217E-01 0.000000000000E+00 0.000000000000E+00 0.000000000000E+00 8.155026767248E-04 5.158211685826E-06
ANCY   0   2 0.000000000000E+00 0.000000000000E+00 4.914862045626E-01 -8.512790775217E-01 0.000000000000E+00 0.000000000000E+00 0.000000000000E+00 8.155026767248E-04 -8.934284716073E-06
ANCX   0   2 0.000000000000E+00 0.000000000000E+00 -9.187660597021E-02 -1.591349495674E-01 0.000000000000E+00 0.000000000000E+00 0.000000000000E+00 8.155026767248E-04 -3.462805649746E-07
ANCY   0   2 0.000000000000E+00 0.000000000000E+00 -9.187660597021E-02 -1.591349495674E-01 0.000000000000E+00 0.000000000000E+00 0.000000000000E+00 8.155026767248E-04 -5.997755322038E-07
ANCX   0   2 0.000000000000E+00 0.000000000000E+00 -2.057883055271E-01 -3.564358007765E-01 0.000000000000E+00 0.000000000000E+00 0.000000000000E+00 1.717221072099E-03 1.930906678066E-06
ANCY   0   2 0.000000000000E+00 0.000000000000E+00 -2.057883055271E-01 -3.564358007765E-01 0.000000000000E+00 0.000000000000E+00 0.000000000000E+00 1.717221072099E-03 3.344428471108E-06
ANCX   0   2 0.000000000000E+00 0.000000000000E+00 -3.085005700799E-01 -5.343386615423E-01 0.000000000000E+00 0.000000000000E+00 0.000000000000E+00 2.227265120251E-03 6.502619426765E-06
ANCY   0   2 0.000000000000E+00 0.000000000000E+00 -3.085005700799E-01 -5.343386615423E-01 0.000000000000E+00 0.000000000000E+00 0.000000000000E+00 2.227265120251E-03 1.126286722945E-05
ANCX   0   2 0.000000000000E+00 0.000000000000E+00 -3.934811282138E-01 -6.815293058858E-01 0.000000000000E+00 0.000000000000E+00 0.000000000000E+00 2.227265120251E-03 7.990950185672E-06
ANCY   0   2 0.000000000000E+00 0.000000000000E+00 -3.934811282138E-01 -6.815293058858E-01 0.000000000000E+00 0.000000000000E+00 0.000000000000E+00 2.227265120251E-03 1.384073172238E-05
ANCX   0   2 0.000000000000E+00 0.000000000000E+00 -4.556875830087E-01 -7.892740461493E-01 0.000000000000E+00 0.000000000000E+00 0.000000000000E+00 1.717221072099E-03 2.742774480146E-06
ANCY   0   2 0.000000000000E+00 0.000000000000E+00 -4.556875830087E-01 -7.892740461493E-01 0.000000000000E+00 0.000000000000E+00 0.000000000000E+00 1.717221072099E-03 4.750624753316E-06
ANCX   0   2 0.000000000000E+00 0.000000000000E+00 -4.914862045626E-01 -8.512790775217E-01 0.000000000000E+00 0.000000000000E+00 0.000000000000E+00 8.155026767248E-04 -5.158211685848E-06
ANCY   0   2 0.000000000000E+00 0.000000000000E+00 -4.914862045626E-01 -8.512790775217E-01 0.000000000000E+00 0.000000000000E+00 0.000000000000E+00 8.155026767248E-04 -8.934284716059E-06
ANCX   0   2 0.000000000000E+00 0.000000000000E+00 -1.837532119404E-01 1.407023591125E-16 0.000000000000E+00 0.000000000000E+00 0.000000000000E+00 8.155026767248E-04 -6.925611299487E-07
ANCY   0   2 0.000000000000E+00 0.000000000000E+00 -1.837532119404E-01 1.407023591125E-16 0.000000000000E+00 0.000000000000E+00 0.000000000000E+00 8.155026767248E-04 -6.243603490813E-19
ANCX   0   2 0.000000000000E+00 0.000000000000E+00 -4.115766110542E-01 3.151498660585E-16 0.000000000000E+00 0.000000000000E+00 0.000000000000E+00 1.717221072099E-03 3.861813356133E-06
ANCY   0   2 0.000000000000E+00 0.000000000000E+00 -4.115766110542E-01 3.151498660585E-16 0.000000000000E+00 0.000000000000E+00 0.000000000000E+00 1.717221072099E-03 -6.278476962014E-19
ANCX   0   2 0.000000000000E+00 0.000000000000E+00 -6.170011401597E-01 4.724462504836E-16 0.000000000000E+00 0.000000000000E+00 0.000000000000E+00 2.227265120251E-03 1.300523885357E-05
ANCY   0   2 0.000000000000E+00 0.000000000000E+00 -6.170011401597E-01 4.724462504836E-16 0.000000000000E+00 0.000000000000E+00 0.000000000000E+00 2.227265120251E-03 -6.348489427335E-19
ANCX   0   2 0.000000000000E+00 0.000000000000E+00 -7.869622564276E-01 6.025878124391E-16 0.000000000000E+00 0.000000000000E+00 0.000000000000E+00 2.227265120251E-03 1.598190037136E-05
ANCY   0   2 0.000000000000E+00 0.000000000000E+00 -7.869622564276E-01 6.025878124391E-16 0.000000000000E+00 0.000000000000E+00 0.000000000000E+00 2.227265120251E-03 -6.371282133564E-19
ANCX   0   2 0.000000000000E+00 0.000000000000E+00 -9.113751660173E-01 6.978524867187E-16 0.000000000000E+00 0.000000000000E+00 0.000000000000E+00 1.717221072099E-03 5.485548960348E-06
ANCY   0   2 0.000000000000E+00 0.000000000000E+00 -9.113751660173E-01 6.978524867187E-16 0.000000000000E+00 0.000000000000E+00 0.000000000000E+00 1.717221072099E-03 -6.290910128633E-19
ANCX   0   2 0.000000000000E+00 0.000000000000E+00 -9.829724091253E-01 7.526754794972E-16 0.000000000000E+00 0.000000000000E+00 0.000000000000E+00 8.155026767248E-04 -1.031642337168E-05
ANCY   0   2 0.000000000000E+00 0.000000000000E+00 -9.829724091253E-01 7.526754794972E-16 0.000000000000E+00 0.000000000000E+00 0.000000000000E+00 8.155026767248E-04 -6.169912255330E-19
ANCX   0   2 0.000000000000E+00 0.000000000000E+00 -9.187660597021E-02 1.591349495674E-01 0.000000000000E+00 0.000000000000E+00 0.000000000000E+00 8.155026767248E-04 -3.462805649746E-07
ANCY   0   2 0.000000000000E+00 0.000000000000E+00 -9.187660597021E-02 1.591349495674E-01 0.000000000000E+00 0.000000000000E+00 0.000000000000E+00 8.155026767248E-04 5.997755322025E-07
ANCX   0   2 0.000000000000E+00 0.000000000000E+00 -2.057883055271E-01 3.564358007765E-01 0.000000000000E+00 0.000000000000E+00 0.000000000000E+00 1.717221072099E-03 1.930906678073E-06
ANCY   0   2 0.000000000000E+00 0.000000000000E+00 -2.057883055271E-01 3.564358007765E-01 0.000000000000E+00 0.000000000000E+00 0.000000000000E+00 1.717221072099E-03 -3.344428471088E-06
ANCX   0   2 0.000000000000E+00 0.000000000000E+00 -3.085005700799E-01 5.343386615423E-01 0.000000000000E+00 0.000000000000E+00 0.000000000000E+00 2.227265120251E-03 6.502619426765E-06
ANCY   0   2 0.000000000000E+00 0.000000000000E+00 -3.085005700799E-01 5.343386615423E-01 0.000000000000E+00 0.000000000000E+00 0.000000000000E+00 2.227265120251E-03 -1.126286722945E-05
ANCX   0   2 0.000000000000E+00 0.000000000000E+00 -3.934811282138E-01 6.815293058858E-01 0.000000000000E+00 0.000000000000E+00 0.000000000000E+00 2.227265120251E-03 7.990950185693E-06
ANCY   0   2 0.000000000000E+00 0.000000000000E+00 -3.934811282138E-01 6.815293058858E-01 0.000000000000E+00 0.000000000000E+00 0.000000000000E+00 2.227265120251E-03 -1.384073172238E-05
ANCX   0   2 0.000000000000E+00 0.000000000000E+00 -4.556875830087E-01 7.892740461493E-01 0.000000000000E+00 0.000000000000E+00 0.000000000000E+00 1.717221072099E-03 2.742774480139E-06
ANCY   0   2 0.000000000000E+00 0.000000000000E+00 -4.556875830087E-01 7.892740461493E-01 0.000000000000E+00 0.000000000000E+00 0.000000000000E+00 1.717221072099E-03 -4.750624753317E-06
ANCX   0   2 0.000000000000E+00 0.000000000000E+00 -4.914862045626E-01 8.512790775217E-01 0.000000000000E+00 0.000000000000E+00 0.000000000000E+00 8.155026767248E-04 -5.158211685841E-06
ANCY   0   2 0.000000000000E+00 0.000000000000E+00 -4.914862045626E-01 8.512790775217E-01 0.000000000000E+00 0.000000000000E+00 0.000000000000E+00 8.155026767248E-04 8.934284716058E-06